<?xml version="1.0" encoding="UTF-8"?>
<!DOCTYPE network SYSTEM "http://www.matsim.org/files/dtd/network_v1.dtd">
<network name="network">
    <nodes>
        <node id="1" x="-25000.0" y="1000.0"/>
        <node id="2" x="-15000.0" y="1000.0"/>
        <node id="3" x="-5000.0" y="1000.0"/>
        <node id="4" x="5000.0" y="1000.0"/>
        <node id="5" x="-25000.0" y="-1000.0"/>
        <node id="6" x="-15000.0" y="-1000.0"/>
        <node id="7" x="-5000.0" y="-1000.0"/>
        <node id="8" x="5000.0" y="-1000.0"/>
    </nodes>
    <links>
        <!-- East-West connections -->
        <link id="1" from="1" to="2" length="10000.0" freespeed="13.9" capacity="2000.0" permlanes="2"/>
        <link id="2" from="2" to="3" length="10000.0" freespeed="13.9" capacity="2000.0" permlanes="2"/>
        <link id="3" from="3" to="4" length="10000.0" freespeed="13.9" capacity="2000.0" permlanes="2"/>
        <link id="4" from="5" to="6" length="10000.0" freespeed="13.9" capacity="2000.0" permlanes="2"/>
        <link id="5" from="6" to="7" length="10000.0" freespeed="13.9" capacity="2000.0" permlanes="2"/>
        <link id="6" from="7" to="8" length="10000.0" freespeed="13.9" capacity="2000.0" permlanes="2"/>

        <!-- Reverse directions -->
        <link id="7" from="2" to="1" length="10000.0" freespeed="13.9" capacity="2000.0" permlanes="2"/>
        <link id="8" from="3" to="2" length="10000.0" freespeed="13.9" capacity="2000.0" permlanes="2"/>
        <link id="9" from="4" to="3" length="10000.0" freespeed="13.9" capacity="2000.0" permlanes="2"/>
        <link id="10" from="6" to="5" length="10000.0" freespeed="13.9" capacity="2000.0" permlanes="2"/>
        <link id="11" from="7" to="6" length="10000.0" freespeed="13.9" capacity="2000.0" permlanes="2"/>
        <link id="12" from="8" to="7" length="10000.0" freespeed="13.9" capacity="2000.0" permlanes="2"/>

        <!-- North-South connections -->
        <link id="13" from="1" to="5" length="2000.0" freespeed="13.9" capacity="1500.0" permlanes="1"/>
        <link id="14" from="2" to="6" length="2000.0" freespeed="13.9" capacity="1500.0" permlanes="1"/>
        <link id="15" from="3" to="7" length="2000.0" freespeed="13.9" capacity="1500.0" permlanes="1"/>
        <link id="16" from="4" to="8" length="2000.0" freespeed="13.9" capacity="1500.0" permlanes="1"/>

        <!-- Reverse directions -->
        <link id="17" from="5" to="1" length="2000.0" freespeed="13.9" capacity="1500.0" permlanes="1"/>
        <link id="18" from="6" to="2" length="2000.0" freespeed="13.9" capacity="1500.0" permlanes="1"/>
        <link id="19" from="7" to="3" length="2000.0" freespeed="13.9" capacity="1500.0" permlanes="1"/>
        <link id="20" from="8" to="4" length="2000.0" freespeed="13.9" capacity="1500.0" permlanes="1"/>
    </links>
</network>